XFLR5 v6.05 beta

 Calculated polar for: MH32

 1 1 Reynolds number fixed          Mach number fixed         

 xtrf =   1.000 (top)        1.000 (bottom)
 Mach =   0.000     Re =     0.150 e 6     Ncrit =  10.000

  alpha     CL        CD       CDp       CM    Top Xtr Bot Xtr   Cpmin    Chinge    XCp    
 ------- -------- --------- --------- -------- ------- ------- -------- --------- ---------
  -8.000  -0.4534   0.08695   0.08323  -0.0211  1.0000  0.0616  -1.9900   0.0000   0.1993
  -3.000  -0.2151   0.01648   0.00845  -0.0328  1.0000  0.0557  -2.7949   0.0000   0.0939
  -2.000  -0.1124   0.01138   0.00666  -0.0316  0.9969  0.8044  -2.0408   0.0000  -0.0355
  -1.000   0.0839   0.01193   0.00642  -0.0492  0.9659  1.0000  -0.5569   0.0000   0.8383
   0.000   0.2660   0.01216   0.00618  -0.0637  0.9309  1.0000  -0.4801   0.0000   0.4888
   1.000   0.4047   0.01175   0.00562  -0.0670  0.8819  1.0000  -0.6198   0.0000   0.4142
   2.000   0.5064   0.01130   0.00509  -0.0621  0.8211  1.0000  -0.7728   0.0000   0.3704
   3.000   0.6045   0.01110   0.00483  -0.0569  0.7418  1.0000  -0.9694   0.0000   0.3412
   4.000   0.7036   0.01149   0.00499  -0.0525  0.6383  1.0000  -1.2633   0.0000   0.3210
   5.000   0.7995   0.01267   0.00593  -0.0485  0.5113  1.0000  -1.7540   0.0000   0.3061
   6.000   0.8890   0.01459   0.00743  -0.0443  0.3582  1.0000  -2.6967   0.0000   0.2943
   7.000   0.9701   0.01778   0.01014  -0.0401  0.1973  1.0000  -4.0489   0.0000   0.2846
   8.000   1.0387   0.02324   0.01514  -0.0345  0.0695  1.0000  -5.2606   0.0000   0.2753
   9.000   1.1103   0.03200   0.02426  -0.0287  0.0368  1.0000  -6.1039   0.0000   0.2668
  10.000   1.1597   0.04373   0.03731  -0.0218  0.0269  1.0000  -6.5120   0.0000   0.2586
  11.000   1.1223   0.05994   0.05511  -0.0112  0.0277  1.0000  -6.1646   0.0000   0.2488
  12.000   1.0412   0.08016   0.07617  -0.0148  0.0291  1.0000  -5.7582   0.0000   0.2516
  13.000   0.8667   0.15228   0.14855  -0.0601  0.0857  1.0000  -2.8601   0.0000   0.3080
  14.000   0.8914   0.17136   0.16767  -0.0599  0.0757  1.0000  -2.9684   0.0000   0.3047


