XFLR5 v6.05 beta

 Calculated polar for: MH32 -5deg

 1 1 Reynolds number fixed          Mach number fixed         

 xtrf =   1.000 (top)        1.000 (bottom)
 Mach =   0.000     Re =     0.200 e 6     Ncrit =  10.000

  alpha     CL        CD       CDp       CM    Top Xtr Bot Xtr   Cpmin    Chinge    XCp    
 ------- -------- --------- --------- -------- ------- ------- -------- --------- ---------
  -6.000  -0.6054   0.06665   0.06332  -0.0119  1.0000  0.0436  -2.8675   0.0000   0.2275
  -5.000  -0.5669   0.05215   0.04792  -0.0135  1.0000  0.0550  -2.8694   0.0000   0.2236
  -4.000  -0.5017   0.03798   0.03350  -0.0126  1.0000  0.0733  -2.5116   0.0000   0.2227
  -3.000  -0.4084   0.02125   0.01434  -0.0050  1.0000  0.0311  -3.1445   0.0000   0.2353
  -2.000  -0.2839   0.01356   0.00617  -0.0075  0.9745  0.0478  -2.8481   0.0000   0.2215
  -1.000  -0.1915   0.00905   0.00496  -0.0009  0.9038  0.8872  -1.9958   0.0000   0.2435
   0.000   0.0374   0.00968   0.00460  -0.0198  0.8567  1.0000  -0.4404   0.0000   0.7801
   1.000   0.1323   0.00987   0.00417  -0.0166  0.7957  1.0000  -0.4370   0.0000   0.3732
   2.000   0.2316   0.01030   0.00424  -0.0145  0.7407  1.0000  -0.5474   0.0000   0.3095
   3.000   0.3320   0.01051   0.00435  -0.0126  0.6881  1.0000  -0.6869   0.0000   0.2844
   4.000   0.4299   0.01027   0.00403  -0.0097  0.6299  1.0000  -0.8696   0.0000   0.2685
   5.000   0.5263   0.01039   0.00408  -0.0067  0.5538  1.0000  -1.1243   0.0000   0.2582
   6.000   0.6188   0.01096   0.00451  -0.0034  0.4583  1.0000  -1.4772   0.0000   0.2500
   7.000   0.7054   0.01213   0.00554   0.0007  0.3403  1.0000  -2.1613   0.0000   0.2427
   8.000   0.7906   0.01416   0.00736   0.0042  0.2126  1.0000  -3.4619   0.0000   0.2372
   9.000   0.8731   0.01762   0.01040   0.0071  0.0867  1.0000  -4.8921   0.0000   0.2333
  10.000   0.9438   0.02385   0.01666   0.0115  0.0341  1.0000  -5.9828   0.0000   0.2281
  11.000   1.0087   0.03312   0.02670   0.0159  0.0217  1.0000  -6.6770   0.0000   0.2233
  12.000   1.0199   0.04791   0.04314   0.0213  0.0203  1.0000  -6.5347   0.0000   0.2170
  13.000   0.9541   0.06661   0.06280   0.0166  0.0215  1.0000  -6.1297   0.0000   0.2191
  14.000   0.8775   0.09624   0.09293  -0.0044  0.0225  1.0000  -5.4794   0.0000   0.2405


