XFLR5 v6.05 beta

 Calculated polar for: MH32 5deg

 1 1 Reynolds number fixed          Mach number fixed         

 xtrf =   1.000 (top)        1.000 (bottom)
 Mach =   0.000     Re =     0.150 e 6     Ncrit =  10.000

  alpha     CL        CD       CDp       CM    Top Xtr Bot Xtr   Cpmin    Chinge    XCp    
 ------- -------- --------- --------- -------- ------- ------- -------- --------- ---------
  -8.000  -0.4797   0.08694   0.08365  -0.0182  1.0000  0.0597  -2.0564   0.0000   0.2084
  -7.000  -0.4557   0.06644   0.06300  -0.0402  1.0000  0.0706  -2.3646   0.0000   0.1585
  -6.000  -0.3912   0.05180   0.04807  -0.0474  1.0000  0.0928  -2.1833   0.0000   0.1258
  -4.000  -0.0981   0.01852   0.01061  -0.0682  1.0000  0.0626  -2.7212   0.0000  -0.4568
  -3.000   0.0243   0.01566   0.00991  -0.0714  1.0000  0.6239  -1.7930   0.0000   3.2169
  -2.000   0.1130   0.01574   0.01027  -0.0667  1.0000  0.8537  -0.8111   0.0000   0.8438
  -1.000   0.2919   0.01746   0.01145  -0.0826  0.9644  1.0000  -0.4631   0.0000   0.5332
   0.000   0.4588   0.01852   0.01228  -0.0940  0.9223  1.0000  -0.6069   0.0000   0.4539
   1.000   0.6334   0.01794   0.01181  -0.1040  0.8816  1.0000  -0.8145   0.0000   0.4125
   2.000   0.7776   0.01581   0.01003  -0.1058  0.8337  1.0000  -1.0801   0.0000   0.3836
   3.000   0.8823   0.01330   0.00788  -0.0995  0.7284  1.0000  -1.4212   0.0000   0.3596
   4.000   0.9991   0.01345   0.00709  -0.0961  0.5231  1.0000  -2.1581   0.0000   0.3421
   5.000   1.0713   0.01639   0.00933  -0.0889  0.3311  1.0000  -3.3506   0.0000   0.3278
   6.000   1.1346   0.02055   0.01266  -0.0816  0.1531  1.0000  -4.6356   0.0000   0.3156
   7.000   1.1888   0.02744   0.01907  -0.0727  0.0536  1.0000  -5.6370   0.0000   0.3037
   8.000   1.2691   0.03758   0.02977  -0.0674  0.0323  1.0000  -6.4206   0.0000   0.2944
   9.000   1.2964   0.05047   0.04428  -0.0566  0.0255  1.0000  -6.6161   0.0000   0.2838
  10.000   1.2331   0.06697   0.06227  -0.0418  0.0275  1.0000  -6.1926   0.0000   0.2730
  11.000   1.1467   0.08746   0.08361  -0.0412  0.0289  1.0000  -5.8214   0.0000   0.2736
  12.000   1.0365   0.12936   0.12615  -0.0697  0.0331  1.0000  -4.7525   0.0000   0.3040
  13.000   0.9859   0.18192   0.17849  -0.0899  0.0747  1.0000  -3.0322   0.0000   0.3281
  14.000   0.9898   0.20202   0.19853  -0.0998  0.0618  1.0000  -2.8510   0.0000   0.3366


