XFLR5 v6.05 beta

 Calculated polar for: MH32 -5deg

 1 1 Reynolds number fixed          Mach number fixed         

 xtrf =   1.000 (top)        1.000 (bottom)
 Mach =   0.000     Re =     0.150 e 6     Ncrit =  10.000

  alpha     CL        CD       CDp       CM    Top Xtr Bot Xtr   Cpmin    Chinge    XCp    
 ------- -------- --------- --------- -------- ------- ------- -------- --------- ---------
  -8.000  -0.5959   0.11000   0.10632   0.0166  1.0000  0.0532  -2.1120   0.0000   0.2738
  -6.000  -0.5929   0.07353   0.06997  -0.0077  1.0000  0.0658  -2.4366   0.0000   0.2344
  -5.000  -0.5687   0.05688   0.05241  -0.0139  1.0000  0.0832  -2.6024   0.0000   0.2233
  -4.000  -0.5065   0.04266   0.03790  -0.0129  1.0000  0.1183  -2.3170   0.0000   0.2225
  -3.000  -0.4086   0.02376   0.01626  -0.0058  1.0000  0.0428  -2.9957   0.0000   0.2333
  -2.000  -0.3342   0.01633   0.00839   0.0008  1.0000  0.0511  -2.8381   0.0000   0.2504
  -1.000  -0.1749   0.01113   0.00662  -0.0028  0.9766  0.9555  -1.8577   0.0000   0.2319
   0.000   0.0669   0.01062   0.00504  -0.0288  0.9250  1.0000  -0.3982   0.0000   0.6794
   1.000   0.1541   0.01084   0.00470  -0.0235  0.8440  1.0000  -0.4458   0.0000   0.4005
   2.000   0.2453   0.01131   0.00476  -0.0192  0.7795  1.0000  -0.5533   0.0000   0.3253
   3.000   0.3411   0.01207   0.00531  -0.0160  0.7201  1.0000  -0.6899   0.0000   0.2937
   4.000   0.4353   0.01217   0.00541  -0.0123  0.6575  1.0000  -0.8685   0.0000   0.2743
   5.000   0.5279   0.01209   0.00532  -0.0080  0.5853  1.0000  -1.1178   0.0000   0.2606
   6.000   0.6179   0.01256   0.00557  -0.0034  0.4922  1.0000  -1.4632   0.0000   0.2502
   7.000   0.7049   0.01364   0.00667   0.0010  0.3729  1.0000  -2.1277   0.0000   0.2423
   8.000   0.7887   0.01591   0.00863   0.0050  0.2392  1.0000  -3.3715   0.0000   0.2363
   9.000   0.8675   0.01979   0.01213   0.0084  0.1076  1.0000  -4.7177   0.0000   0.2318
  10.000   0.9389   0.02654   0.01889   0.0128  0.0444  1.0000  -5.7467   0.0000   0.2266
  11.000   1.0037   0.03962   0.03291   0.0170  0.0318  1.0000  -6.2242   0.0000   0.2222
  12.000   1.0001   0.05301   0.04811   0.0222  0.0281  1.0000  -6.1364   0.0000   0.2158
  13.000   0.9279   0.07290   0.06885   0.0147  0.0296  1.0000  -5.7009   0.0000   0.2209
  14.000   0.7584   0.14181   0.13792  -0.0280  0.0875  1.0000  -2.7535   0.0000   0.2754


