XFLR5 v6.05 beta

 Calculated polar for: MH32

 1 1 Reynolds number fixed          Mach number fixed         

 xtrf =   1.000 (top)        1.000 (bottom)
 Mach =   0.000     Re =     0.200 e 6     Ncrit =  10.000

  alpha     CL        CD       CDp       CM    Top Xtr Bot Xtr   Cpmin    Chinge    XCp    
 ------- -------- --------- --------- -------- ------- ------- -------- --------- ---------
  -8.000  -0.4660   0.08212   0.07892  -0.0357  1.0000  0.0427  -2.4591   0.0000   0.1694
  -6.000  -0.4589   0.05010   0.04629  -0.0415  1.0000  0.0560  -2.7347   0.0000   0.1565
  -5.000  -0.4212   0.03888   0.03467  -0.0370  1.0000  0.0715  -2.5002   0.0000   0.1593
  -4.000  -0.3269   0.02296   0.01628  -0.0330  1.0000  0.0325  -3.0787   0.0000   0.1458
  -3.000  -0.1718   0.01438   0.00694  -0.0406  0.9884  0.0541  -2.7954   0.0000   0.0091
  -2.000  -0.0280   0.01018   0.00577  -0.0473  0.9678  0.8248  -1.6131   0.0000  -1.4552
  -1.000   0.1693   0.00989   0.00504  -0.0639  0.9474  1.0000  -0.3941   0.0000   0.6281
   0.000   0.3072   0.00964   0.00443  -0.0683  0.9096  1.0000  -0.5083   0.0000   0.4718
   1.000   0.4042   0.00932   0.00388  -0.0631  0.8558  1.0000  -0.6248   0.0000   0.4047
   2.000   0.5013   0.00917   0.00356  -0.0583  0.7924  1.0000  -0.7738   0.0000   0.3641
   3.000   0.6013   0.00930   0.00349  -0.0544  0.7059  1.0000  -0.9717   0.0000   0.3376
   4.000   0.7009   0.01006   0.00389  -0.0511  0.5982  1.0000  -1.2671   0.0000   0.3192
   5.000   0.7980   0.01127   0.00491  -0.0481  0.4717  1.0000  -1.7652   0.0000   0.3056
   6.000   0.8901   0.01313   0.00637  -0.0449  0.3216  1.0000  -2.7605   0.0000   0.2948
   7.000   0.9759   0.01598   0.00875  -0.0415  0.1669  1.0000  -4.1853   0.0000   0.2858
   8.000   1.0462   0.02125   0.01348  -0.0363  0.0525  1.0000  -5.4546   0.0000   0.2768
   9.000   1.1134   0.02893   0.02157  -0.0299  0.0280  1.0000  -6.3388   0.0000   0.2678
  10.000   1.1685   0.03913   0.03284  -0.0235  0.0194  1.0000  -6.8657   0.0000   0.2598
  11.000   1.1423   0.05499   0.05031  -0.0124  0.0203  1.0000  -6.5792   0.0000   0.2495
  12.000   1.0665   0.07402   0.07024  -0.0132  0.0215  1.0000  -6.2056   0.0000   0.2496
  13.000   0.9856   0.10391   0.10068  -0.0327  0.0222  1.0000  -5.5958   0.0000   0.2692
  14.000   0.8919   0.16285   0.15966  -0.0610  0.0520  1.0000  -3.1639   0.0000   0.3054


