XFLR5 v6.05 beta

 Calculated polar for: MH32

 1 1 Reynolds number fixed          Mach number fixed         

 xtrf =   1.000 (top)        1.000 (bottom)
 Mach =   0.000     Re =     0.500 e 6     Ncrit =  10.000

  alpha     CL        CD       CDp       CM    Top Xtr Bot Xtr   Cpmin    Chinge    XCp    
 ------- -------- --------- --------- -------- ------- ------- -------- --------- ---------
  -6.000  -0.4028   0.03551   0.03253  -0.0547  0.9897  0.0181  -3.2616   0.0000   0.1103
  -5.000  -0.2714   0.01856   0.01349  -0.0625  0.9776  0.0163  -3.5885   0.0000   0.0148
  -4.000  -0.1488   0.01148   0.00560  -0.0636  0.9603  0.0140  -3.1627   0.0000  -0.1846
  -3.000  -0.0483   0.00828   0.00284  -0.0608  0.9321  0.1846  -2.4212   0.0000  -1.0233
  -2.000   0.0474   0.00656   0.00226  -0.0576  0.9016  0.5740  -1.2651   0.0000   1.4719
  -1.000   0.1400   0.00555   0.00208  -0.0519  0.8685  0.8862  -0.4193   0.0000   0.6213
   0.000   0.2860   0.00533   0.00165  -0.0580  0.8258  1.0000  -0.5035   0.0000   0.4521
   1.000   0.3882   0.00546   0.00146  -0.0558  0.7678  1.0000  -0.6200   0.0000   0.3921
   2.000   0.4910   0.00585   0.00147  -0.0536  0.6810  1.0000  -0.7719   0.0000   0.3570
   3.000   0.5942   0.00653   0.00179  -0.0518  0.5812  1.0000  -0.9717   0.0000   0.3343
   4.000   0.6973   0.00740   0.00231  -0.0503  0.4753  1.0000  -1.2735   0.0000   0.3184
   5.000   0.7982   0.00865   0.00318  -0.0488  0.3467  1.0000  -1.7947   0.0000   0.3064
   6.000   0.8966   0.01034   0.00439  -0.0472  0.2163  1.0000  -2.9231   0.0000   0.2969
   7.000   0.9913   0.01256   0.00615  -0.0453  0.0964  1.0000  -4.4997   0.0000   0.2889
   8.000   1.0761   0.01614   0.00943  -0.0418  0.0217  1.0000  -6.0526   0.0000   0.2809
   9.000   1.1457   0.02124   0.01498  -0.0362  0.0100  1.0000  -7.2796   0.0000   0.2725
  10.000   1.2043   0.02703   0.02130  -0.0299  0.0064  1.0000  -8.4222   0.0000   0.2644
  11.000   1.2014   0.03956   0.03500  -0.0186  0.0057  1.0000  -8.6653   0.0000   0.2537
  12.000   1.1488   0.05570   0.05212  -0.0132  0.0058  1.0000  -8.4578   0.0000   0.2483
  13.000   1.0995   0.07593   0.07303  -0.0219  0.0059  1.0000  -8.3829   0.0000   0.2551
  14.000   1.0479   0.10404   0.10167  -0.0400  0.0061  1.0000  -8.0345   0.0000   0.2719


