XFLR5 v6.05 beta

 Calculated polar for: MH32 5deg

 1 1 Reynolds number fixed          Mach number fixed         

 xtrf =   1.000 (top)        1.000 (bottom)
 Mach =   0.000     Re =     0.500 e 6     Ncrit =  10.000

  alpha     CL        CD       CDp       CM    Top Xtr Bot Xtr   Cpmin    Chinge    XCp    
 ------- -------- --------- --------- -------- ------- ------- -------- --------- ---------
  -6.000  -0.0272   0.01467   0.00913  -0.1197  0.9288  0.0131  -3.3691   0.0000  -4.2215
  -5.000   0.0746   0.01154   0.00561  -0.1180  0.9213  0.0323  -2.7644   0.0000   1.8529
  -4.000   0.1816   0.00958   0.00462  -0.1177  0.9135  0.3487  -1.6235   0.0000   0.9047
  -3.000   0.2865   0.00884   0.00448  -0.1162  0.9018  0.5872  -0.5591   0.0000   0.6586
  -2.000   0.3937   0.00893   0.00466  -0.1147  0.8921  0.6922  -0.4959   0.0000   0.5426
  -1.000   0.5005   0.00833   0.00408  -0.1122  0.8733  0.7483  -0.5993   0.0000   0.4743
   0.000   0.6050   0.00746   0.00356  -0.1094  0.8529  0.8275  -0.7320   0.0000   0.4301
   1.000   0.7210   0.00653   0.00280  -0.1086  0.8187  1.0000  -0.9218   0.0000   0.3992
   2.000   0.8191   0.00653   0.00225  -0.1046  0.6477  1.0000  -1.1677   0.0000   0.3754
   3.000   0.9100   0.00826   0.00329  -0.1008  0.4780  1.0000  -1.5071   0.0000   0.3575
   4.000   1.0011   0.01006   0.00446  -0.0974  0.3212  1.0000  -2.2712   0.0000   0.3431
   5.000   1.0890   0.01238   0.00608  -0.0939  0.1653  1.0000  -3.6915   0.0000   0.3310
   6.000   1.1739   0.01510   0.00825  -0.0901  0.0567  1.0000  -5.2909   0.0000   0.3204
   7.000   1.2456   0.01922   0.01237  -0.0837  0.0148  1.0000  -6.7083   0.0000   0.3097
   8.000   1.2976   0.02457   0.01823  -0.0744  0.0082  1.0000  -7.6658   0.0000   0.2986
   9.000   1.3236   0.03352   0.02789  -0.0631  0.0057  1.0000  -8.4673   0.0000   0.2877
  10.000   1.3205   0.04448   0.03990  -0.0511  0.0054  1.0000  -8.9232   0.0000   0.2773
  11.000   1.2565   0.06223   0.05868  -0.0422  0.0056  1.0000  -8.6103   0.0000   0.2708
  12.000   1.2014   0.08229   0.07944  -0.0471  0.0057  1.0000  -8.5753   0.0000   0.2746
  13.000   1.1465   0.11168   0.10940  -0.0653  0.0059  1.0000  -8.2437   0.0000   0.2907
  14.000   1.0107   0.18124   0.17940  -0.1027  0.0091  1.0000  -4.3748   0.0000   0.3361


