XFLR5 v6.05 beta

 Calculated polar for: MH32 5deg

 1 1 Reynolds number fixed          Mach number fixed         

 xtrf =   1.000 (top)        1.000 (bottom)
 Mach =   0.000     Re =     0.200 e 6     Ncrit =  10.000

  alpha     CL        CD       CDp       CM    Top Xtr Bot Xtr   Cpmin    Chinge    XCp    
 ------- -------- --------- --------- -------- ------- ------- -------- --------- ---------
  -8.000  -0.4832   0.08321   0.08033  -0.0285  1.0000  0.0430  -2.4105   0.0000   0.1872
  -7.000  -0.4635   0.06636   0.06347  -0.0338  1.0000  0.0471  -2.3636   0.0000   0.1739
  -6.000  -0.3796   0.04605   0.04248  -0.0524  1.0000  0.0620  -2.4102   0.0000   0.1084
  -4.000  -0.0990   0.01743   0.01002  -0.0677  1.0000  0.0447  -2.7595   0.0000  -0.4450
  -3.000   0.0630   0.01494   0.00949  -0.0793  0.9893  0.6013  -1.6271   0.0000   1.5204
  -2.000   0.2120   0.01555   0.01022  -0.0864  0.9629  0.7876  -0.4578   0.0000   0.6595
  -1.000   0.3626   0.01565   0.01040  -0.0941  0.9345  1.0000  -0.5072   0.0000   0.5098
   0.000   0.5248   0.01553   0.01012  -0.1032  0.9018  1.0000  -0.6590   0.0000   0.4457
   1.000   0.6757   0.01442   0.00913  -0.1083  0.8688  1.0000  -0.8628   0.0000   0.4087
   2.000   0.8051   0.01217   0.00709  -0.1072  0.8252  1.0000  -1.1279   0.0000   0.3808
   3.000   0.9121   0.01010   0.00491  -0.1017  0.6729  1.0000  -1.4960   0.0000   0.3583
   4.000   0.9978   0.01234   0.00618  -0.0959  0.4712  1.0000  -2.1777   0.0000   0.3419
   5.000   1.0737   0.01507   0.00826  -0.0898  0.2903  1.0000  -3.4335   0.0000   0.3284
   6.000   1.1437   0.01883   0.01122  -0.0838  0.1231  1.0000  -4.8131   0.0000   0.3169
   7.000   1.1967   0.02516   0.01716  -0.0749  0.0388  1.0000  -5.8801   0.0000   0.3051
   8.000   1.2622   0.03404   0.02647  -0.0681  0.0223  1.0000  -6.7342   0.0000   0.2953
   9.000   1.3055   0.04565   0.03958  -0.0583  0.0185  1.0000  -6.9698   0.0000   0.2848


