XFLR5 v6.05 beta

 Calculated polar for: MH32 -5deg

 1 1 Reynolds number fixed          Mach number fixed         

 xtrf =   1.000 (top)        1.000 (bottom)
 Mach =   0.000     Re =     0.500 e 6     Ncrit =  10.000

  alpha     CL        CD       CDp       CM    Top Xtr Bot Xtr   Cpmin    Chinge    XCp    
 ------- -------- --------- --------- -------- ------- ------- -------- --------- ---------
  -5.000  -0.5751   0.03891   0.03581  -0.0115  1.0000  0.0165  -3.6820   0.0000   0.2272
  -4.000  -0.4923   0.03162   0.02753  -0.0084  1.0000  0.0228  -3.2134   0.0000   0.2303
  -3.000  -0.3987   0.01930   0.01383  -0.0071  0.8552  0.0345  -2.8253   0.0000   0.2298
  -2.000  -0.2959   0.01098   0.00421  -0.0006  0.7966  0.0162  -2.9986   0.0000   0.2458
  -1.000  -0.1990   0.00792   0.00236   0.0018  0.7630  0.3660  -2.1307   0.0000   0.2576
   0.000  -0.1133   0.00655   0.00242   0.0082  0.7341  0.8691  -1.0560   0.0000   0.3222
   1.000  -0.0142   0.00676   0.00247   0.0127  0.7022  0.9233  -0.3613   0.0000   1.1605
   2.000   0.0919   0.00666   0.00224   0.0152  0.6657  0.9510  -0.4611   0.0000   0.0792
   3.000   0.2198   0.00682   0.00220   0.0126  0.6157  0.9721  -0.6051   0.0000   0.1884
   4.000   0.3527   0.00707   0.00223   0.0078  0.5496  0.9807  -0.8012   0.0000   0.2235
   5.000   0.4709   0.00743   0.00238   0.0056  0.4671  0.9861  -1.0532   0.0000   0.2332
   6.000   0.5934   0.00812   0.00282   0.0022  0.3644  0.9922  -1.4297   0.0000   0.2408
   7.000   0.7185   0.00930   0.00372  -0.0024  0.2424  0.9992  -2.3276   0.0000   0.2469
   8.000   0.8001   0.01084   0.00494   0.0015  0.1334  1.0000  -3.6936   0.0000   0.2406
   9.000   0.8868   0.01325   0.00696   0.0044  0.0447  1.0000  -5.2829   0.0000   0.2365
  10.000   0.9712   0.01716   0.01107   0.0072  0.0141  1.0000  -6.7578   0.0000   0.2328
  11.000   1.0392   0.02327   0.01777   0.0113  0.0081  1.0000  -7.7243   0.0000   0.2280


